description "Hydrodynamic coefficients converter\377";

uses
	Core,
	plugin\Eigen,
	SysInfo,
	plugin/zstd;

options(MSC) /bigobj;

options(MSC) -D_SCL_SECURE_NO_WARNINGS;

file
	main.cpp,
	BEMRosetta.cpp,
	BEMRosetta.h,
	Nemoh.cpp,
	Wamit.cpp,
	Fast.cpp,
	data.brc,
	HydroDyn.dat,
	license.txt;

mainconfig
	"" = "";

