-time 

-echo "\n\nReading time series from CSV"
-i "..\examples\csv\hello.csv"
-print list
-print FAIRTEN3 23.5	-isSimilar  1416118
-print FAIRTEN3 avg		-isSimilar  1286553
-print FAIRTEN3 max		-isSimilar  1416893

-i "..\examples\csv\hello - header.csv"
-print list
-print FAIRTEN3 23.5	-isSimilar  1416118
-print FAIRTEN3 avg		-isSimilar  1286553
-print FAIRTEN3 max		-isSimilar  1416893

-i "..\examples\csv\hello - comma.csv"
-print list
-print FAIRTEN3 23.5	-isSimilar  1416118
-print FAIRTEN3 avg		-isSimilar  1286553
-print FAIRTEN3 max		-isSimilar  1416893

-i "..\examples\csv\hello - other sep.csv"
-print list
-print FAIRTEN3 23.5	-isSimilar  1416118
-print FAIRTEN3 avg		-isSimilar  1286553
-print FAIRTEN3 max		-isSimilar  1416893

-echo "\n\nReading time series from OpenFAST"
-i "..\examples\fast.out\demo.outb"
-print list
-print FAIRTEN3 23.5	-isSimilar  1416118
-print FAIRTEN3 avg		-isSimilar  1286553
-print FAIRTEN3 max		-isSimilar  1416893

-c ".test\hello.csv"
-i ".test\hello.csv"
-print list
-print FAIRTEN3 23.5	-isSimilar  1416118
-print FAIRTEN3 avg		-isSimilar  1286553
-print FAIRTEN3 max		-isSimilar  1416893

-echo "\n\nReading time series from AQWA Naut"
-i "..\examples\aqwa\naut\DemoTimeDomain.lis"
-print list
-print POSITION_z 23.5	-isSimilar  9.7241
-print POSITION_z avg	-isSimilar  11.434
-print POSITION_z max	-isSimilar  21.843
